gridfm_datakit/grids/pglib_opf_case500_goc_corrected.m
%% MATPOWER Case Format : Version 2
function mpc = pglib_opf_case500_goc
mpc.version = '2';

%%-----  Power Flow Data  -----%%
%% system MVA base
mpc.baseMVA = 100.0;
%% bus data
%    bus_i    type    Pd    Qd    Gs    Bs    area    Vm    Va    baseKV    zone    Vmax    Vmin
mpc.bus = [
	1	1	35.618824	6.573722700000001	0.0	0.0	1	1.0	0.0	138.0	1	1.1	0.9				
	2	1	98.249974	27.511604000000002	0.0	0.0	1	1.0	0.0	138.0	1	1.1	0.9				
	3	1	48.647106	11.129965	0.0	0.0	1	1.0	0.0	138.0	1	1.1	0.9				
	4	1	85.907798	3.746604	0.0	0.0	1	1.0	0.0	138.0	1	1.1	0.9				
	5	1	84.780273	14.432042000000001	0.0	0.0	1	1.0	0.0	138.0	1	1.1	0.9				
	6	1	62.478442	5.521289	0.0	0.0	1	1.0	0.0	138.0	1	1.1	0.9				
	7	1	49.784158	17.19519	0.0	0.0	1	1.0	0.0	138.0	1	1.1	0.9				
	8	1	64.701608	7.0712876	0.0	0.0	1	1.0	0.0	138.0	1	1.1	0.9				
	9	1	20.503948	8.8063929	0.0	0.0	1	1.0	0.0	138.0	1	1.1	0.9				
	10	1	46.413917	14.154900000000001	0.0	0.0	1	1.0	0.0	138.0	1	1.1	0.9				
	11	1	16.100847	3.9200655	0.0	0.0	1	1.0	0.0	138.0	1	1.1	0.9				
	12	1	43.588438	2.8695031	0.0	0.0	1	1.0	0.0	138.0	1	1.1	0.9				
	13	1	61.22114	10.723958	0.0	0.0	1	1.0	0.0	138.0	1	1.1	0.9				
	14	1	130.84189	52.410124999999994	0.0	0.0	1	1.0	0.0	138.0	1	1.1	0.9				
	15	1	104.28734	12.652581	0.0	0.0	1	1.0	0.0	138.0	1	1.1	0.9				
	16	1	27.228169	9.9052567	0.0	0.0	1	1.0	0.0	138.0	1	1.1	0.9				
	17	1	32.011464	13.061043	0.0	0.0	1	1.0	0.0	138.0	1	1.1	0.9				
	18	1	119.67056999999998	30.774143	0.0	0.0	1	1.0	0.0	138.0	1	1.1	0.9				
	19	1	65.320532	13.431943999999998	0.0	0.0	1	1.0	0.0	138.0	1	1.1	0.9				
	20	1	0.0	0.0	0.0	0.0	1	1.0	0.0	345.0	1	1.1	0.9				
	21	1	58.218813000000004	18.966129	0.0	0.0	1	1.0	0.0	138.0	1	1.1	0.9				
	22	1	0.0	0.0	0.0	0.0	1	1.0	0.0	345.0	1	1.1	0.9				
	23	1	29.018699000000005	6.2106536	0.0	0.0	1	1.0	0.0	138.0	1	1.1	0.9				
	24	1	54.279955	33.954042	0.0	0.0	1	1.0	0.0	138.0	1	1.1	0.9				
	25	1	0.0	0.0	0.0	0.0	1	1.0	0.0	345.0	1	1.1	0.9				
	26	1	0.0	0.0	0.0	0.0	1	1.0	0.0	138.0	1	1.1	0.9				
	27	1	102.98049	33.448899	0.0	0.0	1	1.0	0.0	345.0	1	1.1	0.9				
	28	1	61.334173	20.664905	0.0	0.0	1	1.0	0.0	138.0	1	1.1	0.9				
	29	1	50.934864000000005	10.690247	0.0	0.0	1	1.0	0.0	138.0	1	1.1	0.9				
	30	1	52.921547999999994	2.7888621	0.0	0.0	1	1.0	0.0	138.0	1	1.1	0.9				
	31	1	96.443918	21.502746	0.0	0.0	1	1.0	0.0	138.0	1	1.1	0.9				
	32	1	78.803641	26.902654	0.0	0.0	1	1.0	0.0	138.0	1	1.1	0.9				
	33	1	173.87396	98.108359	0.0	0.0	1	1.0	0.0	138.0	1	1.1	0.9				
	34	1	62.111172	13.143542	0.0	0.0	1	1.0	0.0	138.0	1	1.1	0.9				
	35	1	114.97555	12.155419	0.0	0.0	1	1.0	0.0	138.0	1	1.1	0.9				
	36	1	135.53799	51.44229299999999	0.0	0.0	1	1.0	0.0	138.0	1	1.1	0.9				
	37	1	163.47215	36.679462	0.0	0.0	1	1.0	0.0	138.0	1	1.1	0.9				
	38	1	94.238784	20.040841	0.0	0.0	1	1.0	0.0	138.0	1	1.1	0.9				
	39	1	133.70834	50.68180999999999	0.0	0.0	1	1.0	0.0	138.0	1	1.1	0.9				
	40	1	153.11126	18.774944	0.0	0.0	1	1.0	0.0	138.0	1	1.1	0.9				
	41	1	0.0	0.0	0.0	0.0	1	1.0	0.0	345.0	1	1.1	0.9				
	42	1	98.133807	30.734595999999996	0.0	0.0	1	1.0	0.0	138.0	1	1.1	0.9				
	43	1	0.0	0.0	0.0	0.0	1	1.0	0.0	345.0	1	1.1	0.9				
	44	1	77.880051	5.0373808	0.0	0.0	1	1.0	0.0	138.0	1	1.1	0.9				
	45	1	302.57835	18.48031	0.0	0.0	1	1.0	0.0	138.0	1	1.1	0.9				
	46	1	114.29506999999998	24.00707	0.0	0.0	1	1.0	0.0	138.0	1	1.1	0.9				
	47	1	88.231203	9.1999478	0.0	0.0	1	1.0	0.0	138.0	1	1.1	0.9				
	48	1	72.71207	7.1365783	0.0	0.0	1	1.0	0.0	138.0	1	1.1	0.9				
	49	1	127.71185	15.181496	0.0	0.0	1	1.0	0.0	138.0	1	1.1	0.9				
	50	1	86.944338	53.88001799999999	0.0	0.0	1	1.0	0.0	138.0	1	1.1	0.9				
	51	1	88.686916	19.421573	0.0	0.0	1	1.0	0.0	138.0	1	1.1	0.9				
	52	1	0.0	0.0	0.0	0.0	1	1.0	0.0	345.0	1	1.1	0.9				
	53	1	171.6378	44.16329	0.0	0.0	1	1.0	0.0	138.0	1	1.1	0.9				
	54	1	0.0	0.0	0.0	0.0	1	1.0	0.0	345.0	1	1.1	0.9				
	55	1	36.123908	3.9151884	0.0	0.0	1	1.0	0.0	138.0	1	1.1	0.9				
	56	1	38.577879	3.9945162	0.0	0.0	1	1.0	0.0	138.0	1	1.1	0.9				
	57	1	19.683228	6.0811296	0.0	0.0	1	1.0	0.0	138.0	1	1.1	0.9				
	58	1	43.832014	35.835862	0.0	0.0	1	1.0	0.0	138.0	1	1.1	0.9				
	59	1	42.90744	17.471748	0.0	90.8493130009	1	1.0	0.0	138.0	1	1.1	0.9				
	60	1	22.945448	9.1966579	0.0	0.0	1	1.0	0.0	138.0	1	1.1	0.9				
	61	1	44.969939	9.759103	0.0	0.0	1	1.0	0.0	138.0	1	1.1	0.9				
	62	1	36.437586	4.474327	0.0	0.0	1	1.0	0.0	138.0	1	1.1	0.9				
	63	1	71.680313	17.142062	0.0	-0.769859349578	1	1.0	0.0	138.0	1	1.1	0.9				
	64	1	31.844114	8.0677761	0.0	0.0	1	1.0	0.0	138.0	1	1.1	0.9				
	65	1	63.899352	9.1908374	0.0	0.0	1	1.0	0.0	138.0	1	1.1	0.9				
	66	1	36.679289	10.617765	0.0	25.1105326653	1	1.0	0.0	138.0	1	1.1	0.9				
	67	1	28.707733	7.210017100000001	0.0	0.0	1	1.0	0.0	138.0	1	1.1	0.9				
	68	1	28.629120000000004	5.4703638	0.0	0.0	1	1.0	0.0	138.0	1	1.1	0.9				
	69	1	32.067628	8.0925529	0.0	0.0	1	1.0	0.0	138.0	1	1.1	0.9				
	70	1	39.196158	3.9775994000000003	0.0	0.0	1	1.0	0.0	138.0	1	1.1	0.9				
	71	1	60.37453899999999	8.4751114	0.0	0.0	1	1.0	0.0	138.0	1	1.1	0.9				
	72	1	56.946907	9.9333583	0.0	0.0	1	1.0	0.0	138.0	1	1.1	0.9				
	73	1	70.414725	10.349797	0.0	0.0	1	1.0	0.0	138.0	1	1.1	0.9				
	74	1	60.75830400000001	25.733148	0.0	0.0	1	1.0	0.0	138.0	1	1.1	0.9				
	75	1	40.775379	8.4048883	0.0	0.0	1	1.0	0.0	138.0	1	1.1	0.9				
	76	1	43.071256	4.3092484	0.0	0.0	1	1.0	0.0	138.0	1	1.1	0.9				
	77	1	57.295706	18.331089	0.0	0.0	1	1.0	0.0	138.0	1	1.1	0.9				
	78	1	54.007001	18.028247	0.0	0.0	1	1.0	0.0	138.0	1	1.1	0.9				
	79	1	54.26508299999999	10.902562	0.0	0.0	1	1.0	0.0	138.0	1	1.1	0.9				
	80	1	46.069768	21.190099	0.0	0.0	1	1.0	0.0	138.0	1	1.1	0.9				
	81	1	54.507951	17.693866	0.0	0.0	1	1.0	0.0	138.0	1	1.1	0.9				
	82	1	111.64361999999998	24.13123	0.0	0.0	1	1.0	0.0	138.0	1	1.1	0.9				
	83	1	101.04494	24.905649	0.0	0.0	1	1.0	0.0	138.0	1	1.1	0.9				
	84	1	56.110567	11.571753	0.0	0.0	1	1.0	0.0	138.0	1	1.1	0.9				
	85	1	32.550342	12.181852	0.0	0.0	1	1.0	0.0	138.0	1	1.1	0.9				
	86	1	59.54523300000001	10.884686	0.0	0.0	1	1.0	0.0	138.0	1	1.1	0.9				
	87	1	65.981712	22.630096	0.0	0.0	1	1.0	0.0	138.0	1	1.1	0.9				
	88	1	47.343404	10.039575	0.0	0.0	1	1.0	0.0	138.0	1	1.1	0.9				
	89	1	74.818328	17.494879	0.0	0.0	1	1.0	0.0	138.0	1	1.1	0.9				
	90	1	0.0	0.0	0.0	0.0	1	1.0	0.0	345.0	1	1.1	0.9				
	91	1	0.0	0.0	0.0	0.0	1	1.0	0.0	138.0	1	1.1	0.9				
	92	1	106.47708	17.937195	0.0	0.0	1	1.0	0.0	345.0	1	1.1	0.9				
	93	1	40.21293	5.3027836	0.0	0.0	1	1.0	0.0	138.0	1	1.1	0.9				
	94	1	46.5641	6.1192811	0.0	0.0	1	1.0	0.0	138.0	1	1.1	0.9				
	95	1	46.010271	23.126542	0.0	0.0	1	1.0	0.0	138.0	1	1.1	0.9				
	96	1	33.93057	6.3354304	0.0	0.0	1	1.0	0.0	138.0	1	1.1	0.9				
	97	1	0.0	0.0	0.0	0.0	1	1.0	0.0	345.0	1	1.1	0.9				
	98	1	0.0	0.0	0.0	0.0	1	1.0	0.0	138.0	1	1.1	0.9				
	99	1	97.74846	38.282719	0.0	0.0	1	1.0	0.0	345.0	1	1.1	0.9				
	100	1	38.554521	12.141577	0.0	0.0	1	1.0	0.0	138.0	1	1.1	0.9				
	101	1	45.161533	22.880496	0.0	0.0	1	1.0	0.0	138.0	1	1.1	0.9				
	102	1	29.186281	7.814491600000001	0.0	0.0	1	1.0	0.0	138.0	1	1.1	0.9				
	103	1	34.30703	9.7968422	0.0	0.0	1	1.0	0.0	138.0	1	1.1	0.9				
	104	1	24.265991	5.5635958	0.0	0.0	1	1.0	0.0	138.0	1	1.1	0.9				
	105	1	39.916997	11.441166	0.0	0.0	1	1.0	0.0	138.0	1	1.1	0.9				
	106	1	0.0	0.0	0.0	0.0	1	1.0	0.0	345.0	1	1.1	0.9				
	107	1	75.513667	1.3391346	0.0	0.0	1	1.0	0.0	138.0	1	1.1	0.9				
	108	1	0.0	0.0	0.0	0.0	1	1.0	0.0	345.0	1	1.1	0.9				
	109	1	49.64731	13.461957	0.0	24.7928450645	1	1.0	0.0	138.0	1	1.1	0.9				
	110	1	54.656490000000005	8.3286733	0.0	0.0	1	1.0	0.0	138.0	1	1.1	0.9				
	111	1	93.172043	20.327059	0.0	0.0	1	1.0	0.0	138.0	1	1.1	0.9				
	112	1	99.668833	59.004116	0.0	0.0	1	1.0	0.0	138.0	1	1.1	0.9				
	113	1	52.670777	21.324699	0.0	0.0	1	1.0	0.0	138.0	1	1.1	0.9				
	114	1	40.69928	12.372287	0.0	0.0	1	1.0	0.0	138.0	1	1.1	0.9				
	115	1	77.71488	14.88003	0.0	0.0	1	1.0	0.0	138.0	1	1.1	0.9				
	116	1	88.038082	18.358639	0.0	52.8084832569	1	1.0	0.0	138.0	1	1.1	0.9				
	117	1	68.182582	7.6680950999999995	0.0	0.0	1	1.0	0.0	138.0	1	1.1	0.9				
	118	1	92.360117	11.407371	0.0	0.0	1	1.0	0.0	138.0	1	1.1	0.9				
	119	1	0.0	0.0	0.0	0.0	1	1.0	0.0	345.0	1	1.1	0.9				
	120	1	85.816859	23.336996	0.0	0.0	1	1.0	0.0	138.0	1	1.1	0.9				
	121	1	0.0	0.0	0.0	0.0	1	1.0	0.0	345.0	1	1.1	0.9				
	122	1	54.397196	9.0923423	0.0	0.0	1	1.0	0.0	138.0	1	1.1	0.9				
	123	1	71.147368	33.993187	0.0	0.0	1	1.0	0.0	138.0	1	1.1	0.9				
	124	1	83.926724	7.344982699999999	0.0	0.0	1	1.0	0.0	138.0	1	1.1	0.9				
	125	1	83.155053	31.193834999999996	0.0	0.0	1	1.0	0.0	138.0	1	1.1	0.9				
	126	1	36.25305	3.6660490000000006	0.0	0.0	1	1.0	0.0	138.0	1	1.1	0.9				
	127	1	29.818337	16.407276	0.0	0.0	1	1.0	0.0	138.0	1	1.1	0.9				
	128	1	35.782628	2.4228445	0.0	0.0	1	1.0	0.0	138.0	1	1.1	0.9				
	129	1	51.809298000000005	15.497269999999999	0.0	0.0	1	1.0	0.0	138.0	1	1.1	0.9				
	130	1	31.251404	13.832106	0.0	0.0	1	1.0	0.0	138.0	1	1.1	0.9				
	131	1	34.958927	7.636337	0.0	0.0	1	1.0	0.0	138.0	1	1.1	0.9				
	132	1	52.063316	19.148102	0.0	49.7024353103	1	1.0	0.0	138.0	1	1.1	0.9				
	133	1	19.636888	8.9944631	0.0	0.0	1	1.0	0.0	138.0	1	1.1	0.9				
	134	1	38.948873	4.3593831	0.0	0.0	1	1.0	0.0	138.0	1	1.1	0.9				
	135	1	0.0	0.0	0.0	21.7328832732	1	1.0	0.0	345.0	1	1.1	0.9				
	136	1	0.0	0.0	0.0	0.0	1	1.0	0.0	138.0	1	1.1	0.9				
	137	1	51.54586	9.903541	0.0	0.0	1	1.0	0.0	345.0	1	1.1	0.9				
	138	1	58.67666499999999	17.430486	0.0	94.7667573409	1	1.0	0.0	138.0	1	1.1	0.9				
	139	1	71.483796	14.183202	0.0	0.0	1	1.0	0.0	138.0	1	1.1	0.9				
	140	1	72.496609	22.65969	0.0	0.0	1	1.0	0.0	138.0	1	1.1	0.9				
	141	1	81.951796	40.60647	0.0	0.0	1	1.0	0.0	138.0	1	1.1	0.9				
	142	1	22.847942	4.5029059	0.0	0.0	1	1.0	0.0	138.0	1	1.1	0.9				
	143	1	42.563165	21.293882	0.0	0.0	1	1.0	0.0	138.0	1	1.1	0.9				
	144	1	35.494926	8.3704275	0.0	0.0	1	1.0	0.0	138.0	1	1.1	0.9				
	145	1	78.917738	30.005083	0.0	0.0	1	1.0	0.0	138.0	1	1.1	0.9				
	146	1	44.649313	13.401109	0.0	0.0	1	1.0	0.0	138.0	1	1.1	0.9				
	147	1	65.73686	21.35948	0.0	0.0	1	1.0	0.0	138.0	1	1.1	0.9				
	148	1	87.010729	41.888415	0.0	0.0	1	1.0	0.0	138.0	1	1.1	0.9				
	149	1	109.81274	17.012804	0.0	0.0	1	1.0	0.0	138.0	1	1.1	0.9				
	150	1	169.63527	52.74781000000001	0.0	0.0	1	1.0	0.0	138.0	1	1.1	0.9				
	151	1	0.0	0.0	0.0	0.0	1	1.0	0.0	345.0	1	1.1	0.9				
	152	1	0.0	0.0	0.0	0.0	1	1.0	0.0	138.0	1	1.1	0.9				
	153	1	157.10017	35.911907	0.0	0.0	1	1.0	0.0	345.0	1	1.1	0.9				
	154	1	53.456581	10.636111	0.0	0.0	1	1.0	0.0	138.0	1	1.1	0.9				
	155	1	90.361803	14.921995000000003	0.0	0.0	1	1.0	0.0	138.0	1	1.1	0.9				
	156	1	73.742886	28.154261	0.0	118.046712728	1	1.0	0.0	138.0	1	1.1	0.9				
	157	1	37.965472	26.039832	0.0	0.0	1	1.0	0.0	138.0	1	1.1	0.9				
	158	1	99.232414	16.632599	0.0	0.0	1	1.0	0.0	138.0	1	1.1	0.9				
	159	1	73.406892	14.440844	0.0	0.0	1	1.0	0.0	138.0	1	1.1	0.9				
	160	1	36.396681	14.792214000000001	0.0	0.0	1	1.0	0.0	138.0	1	1.1	0.9				
	161	1	28.658666	5.7080747	0.0	0.0	1	1.0	0.0	138.0	1	1.1	0.9				
	162	1	26.355874	8.7299695	0.0	0.0	1	1.0	0.0	138.0	1	1.1	0.9				
	163	1	36.962971	3.8905286000000006	0.0	0.0	1	1.0	0.0	138.0	1	1.1	0.9				
	164	1	39.57328	5.63349	0.0	0.0	1	1.0	0.0	138.0	1	1.1	0.9				
	165	1	124.00109000000002	13.814380000000002	0.0	0.0	1	1.0	0.0	138.0	1	1.1	0.9				
	166	1	74.25287	16.429664	0.0	0.0	1	1.0	0.0	138.0	1	1.1	0.9				
	167	1	40.830164	10.040794	0.0	0.0	1	1.0	0.0	138.0	1	1.1	0.9				
	168	1	72.906616	23.714286	0.0	34.2518507631	1	1.0	0.0	138.0	1	1.1	0.9				
	169	1	40.186614	21.45574	0.0	0.0	1	1.0	0.0	138.0	1	1.1	0.9				
	170	1	99.319971	23.82538	0.0	0.0	1	1.0	0.0	138.0	1	1.1	0.9				
	171	1	115.38625999999998	31.220929	0.0	0.0	1	1.0	0.0	138.0	1	1.1	0.9				
	172	1	63.642405000000004	19.895522	0.0	0.0	1	1.0	0.0	138.0	1	1.1	0.9				
	173	1	33.992307	4.577169	0.0	0.0	1	1.0	0.0	138.0	1	1.1	0.9				
	174	1	136.21012	69.077179	0.0	0.0	1	1.0	0.0	138.0	1	1.1	0.9				
	175	1	98.379266	4.0944475	0.0	0.0	1	1.0	0.0	138.0	1	1.1	0.9				
	176	1	68.807669	42.520355	0.0	273.909700488	1	1.0	0.0	138.0	1	1.1	0.9				
	177	1	165.22394	27.018245	0.0	0.0	1	1.0	0.0	138.0	1	1.1	0.9				
	178	1	190.80659	44.515712	0.0	0.0	1	1.0	0.0	138.0	1	1.1	0.9				
	179	1	75.32883	20.81102	0.0	0.0	1	1.0	0.0	138.0	1	1.1	0.9				
	180	1	42.215803	6.3904743999999996	0.0	0.0	1	1.0	0.0	138.0	1	1.1	0.9				
	181	1	50.836476	8.987556	0.0	0.000593243029123	1	1.0	0.0	138.0	1	1.1	0.9				
	182	1	112.80944	14.469464000000002	0.0	0.0	1	1.0	0.0	138.0	1	1.1	0.9				
	183	1	93.87775	19.613303	0.0	0.0	1	1.0	0.0	138.0	1	1.1	0.9				
	184	1	76.916709	31.744798000000003	0.0	0.0	1	1.0	0.0	138.0	1	1.1	0.9				
	185	1	93.268528	3.438134	0.0	0.0	1	1.0	0.0	138.0	1	1.1	0.9				
	186	1	92.221114	21.672864	0.0	0.0	1	1.0	0.0	138.0	1	1.1	0.9				
	187	1	163.8891	73.256722	0.0	0.0	1	1.0	0.0	138.0	1	1.1	0.9				
	188	1	53.146808	14.762756	0.0	0.0	1	1.0	0.0	138.0	1	1.1	0.9				
	189	1	39.007399	3.6469168999999995	0.0	0.0	1	1.0	0.0	138.0	1	1.1	0.9				
	190	1	0.0	0.0	0.0	0.0	1	1.0	0.0	345.0	1	1.1	0.9				
	191	1	0.0	0.0	0.0	0.0	1	1.0	0.0	138.0	1	1.1	0.9				
	192	1	131.01594	31.623052	0.0	0.0	1	1.0	0.0	345.0	1	1.1	0.9				
	193	1	77.65605	23.362786	0.0	0.0	1	1.0	0.0	138.0	1	1.1	0.9				
	194	1	70.681819	16.974466	0.0	0.0	1	1.0	0.0	138.0	1	1.1	0.9				
	195	1	80.464995	14.654426	0.0	0.0	1	1.0	0.0	138.0	1	1.1	0.9				
	196	1	68.678582	13.070455	0.0	0.0	1	1.0	0.0	138.0	1	1.1	0.9				
	197	1	38.369874	7.1977718	0.0	0.0	1	1.0	0.0	138.0	1	1.1	0.9				
	198	1	52.283712	19.787616	0.0	0.0	1	1.0	0.0	138.0	1	1.1	0.9				
	199	1	66.679247	2.5058577	0.0	-17.2164488869	1	1.0	0.0	138.0	1	1.1	0.9				
	200	1	61.922847999999995	16.822065	0.0	22.9029846928	1	1.0	0.0	138.0	1	1.1	0.9				
...
];

%% generator data
%    bus    Pg    Qg    Qmax    Qmin    Vg    mBase    status    Pmax    Pmin    Pc1    Pc2    Qc1min    Qc1max    Qc2min    Qc2max    ramp_agc    ramp_10    ramp_30    ramp_q    apf
mpc.gen = [
	272	34.463	7.856000000000001	18.01	-2.298	1.0	46.9	1	46.9	22.026															
	275	0.0	0.0	326.858	-72.832	1.0	888.2	0	888.1999999999999	146.11															
	276	643.217	127.013	326.858	-72.832	1.0	888.2	1	888.1999999999999	398.234															
	277	16.691	4.1875	9.6	-1.225	1.0	25.0	1	25.0	8.382															
	277	13.858	4.1875	9.6	-1.225	1.0	25.0	1	25.0	2.716															
	277	17.3305	4.1875	9.6	-1.225	1.0	25.0	1	25.0	9.661															
	277	16.8255	4.1875	9.6	-1.225	1.0	25.0	1	25.0	8.651															
	280	118.674	31.581	80.778	-17.616	1.0	158.7	1	158.7	78.648															
	281	0.0	0.0	80.778	-17.616	1.0	158.7	0	158.7	68.611															
	284	135.035	43.2495	110.623	-24.124	1.0	217.33	1	217.333	52.737															
	285	136.374	43.2495	110.623	-24.124	1.0	217.33	1	217.333	55.415000000000006															
	286	143.288	43.2495	110.623	-24.124	1.0	217.33	1	217.333	69.243															
	287	0.0	0.0	110.623	-24.124	1.0	217.33	0	217.333	64.598															
	288	0.0	0.0	110.623	-24.124	1.0	217.33	0	217.333	52.42400000000001															
	289	122.40600000000002	43.2495	110.623	-24.124	1.0	217.33	1	217.333	27.479															
	292	0.28	0.0835	0.192	-0.025	1.0	0.5	1	0.5	0.06															
	292	0.313	0.0835	0.192	-0.025	1.0	0.5	1	0.5	0.126															
	294	0.0	0.0	9.162	-1.9980000000000002	1.0	18.0	0	18.0	5.517															
	297	130.6165	35.515	90.84	-19.81	1.0	178.47	1	178.467	82.766															
	298	132.5635	35.515	90.84	-19.81	1.0	178.47	1	178.467	86.66															
	299	0.0	0.0	90.84	-19.81	1.0	178.47	0	178.467	63.99															
	300	121.06099999999999	35.515	90.84	-19.81	1.0	178.47	1	178.467	63.65500000000001															
	301	0.0	0.0	90.84	-19.81	1.0	178.47	0	178.467	54.225															
	302	121.1655	35.515	90.84	-19.81	1.0	178.47	1	178.467	63.864															
	303	42.106	11.306	25.920000000000005	-3.308	1.0	67.5	1	67.5	16.712															
	303	40.629	11.306	25.920000000000005	-3.308	1.0	67.5	1	67.5	13.757999999999997															
	306	0.0	0.0	3.2620000000000005	-0.8539999999999999	1.0	7.0	0	7.000000000000001	1.745															
	306	3.891	1.204	3.2620000000000005	-0.8539999999999999	1.0	7.0	1	7.000000000000001	0.782															
	307	22.668	5.645	12.940999999999999	-1.651	1.0	33.7	1	33.7	11.636															
	307	24.2095	5.645	12.940999999999999	-1.651	1.0	33.7	1	33.7	14.719															
	307	0.0	0.0	12.940999999999999	-1.651	1.0	33.7	0	33.7	6.952															
	311	0.0	0.0	428.597	-95.503	1.0	1164.67	0	1164.667	186.084															
	312	809.5270000000002	166.547	428.597	-95.503	1.0	1164.67	1	1164.667	454.387															
	313	806.4555	166.547	428.597	-95.503	1.0	1164.67	1	1164.667	448.244															
	316	237.492	66.191	169.302	-36.92	1.0	332.62	1	332.617	142.367															
	317	0.0	0.0	169.302	-36.92	1.0	332.62	0	332.617	38.676															
	318	184.7845	66.191	169.302	-36.92	1.0	332.62	1	332.617	36.952															
	319	209.1735	66.191	169.302	-36.92	1.0	332.62	1	332.617	85.73															
	320	0.0	0.0	169.302	-36.92	1.0	332.62	0	332.617	130.581															
	321	0.0	0.0	169.302	-36.92	1.0	332.62	0	332.617	84.68															
	324	0.0	0.0	61.08	-13.320000000000002	1.0	120.0	0	120.0	31.702															
	325	86.33	23.88	61.08	-13.320000000000002	1.0	120.0	1	120.0	52.66															
	326	88.9155	23.88	61.08	-13.320000000000002	1.0	120.0	1	120.0	57.830999999999996															
	327	0.0	0.0	61.08	-13.320000000000002	1.0	120.0	0	120.0	55.972															
	328	84.224	23.88	61.08	-13.320000000000002	1.0	120.0	1	120.0	48.448															
	329	70.3275	23.88	61.08	-13.320000000000002	1.0	120.0	1	120.0	20.655															
	330	0.6295	0.172	0.466	-0.122	1.0	1.0	1	1.0	0.259															
	330	0.5715	0.172	0.466	-0.122	1.0	1.0	1	1.0	0.143															
	330	0.674	0.172	0.466	-0.122	1.0	1.0	1	1.0	0.348															
	330	0.7045	0.172	0.466	-0.122	1.0	1.0	1	1.0	0.409															
	334	42.423	11.868	32.154	-8.418	1.0	69.0	1	69.0	15.845999999999998															
	335	0.0	0.0	32.154	-8.418	1.0	69.0	0	69.0	12.549															
	338	174.097	46.7355	119.539	-26.068	1.0	234.85	1	234.85	113.344															
	339	165.63	46.7355	119.539	-26.068	1.0	234.85	1	234.85	96.41															
	340	0.0	0.0	119.539	-26.068	1.0	234.85	0	234.85	83.983															
	341	164.3445	46.7355	119.539	-26.068	1.0	234.85	1	234.85	93.839															
	343	0.0	0.0	83.569	-21.879	1.0	179.33	0	179.333	41.662															
	344	108.94699999999999	30.845	83.569	-21.879	1.0	179.33	1	179.333	38.561															
	345	0.0	0.0	83.569	-21.879	1.0	179.33	0	179.333	80.146															
	346	33.0455	9.6515	24.687	-5.384	1.0	48.5	1	48.5	17.591															
	346	35.5875	9.6515	24.687	-5.384	1.0	48.5	1	48.5	22.675															
	347	0.0	0.0	28.800000000000004	-3.675	1.0	75.0	0	75.0	36.562															
	347	54.1725	12.562499999999998	28.800000000000004	-3.675	1.0	75.0	1	75.0	33.345															
	347	52.459	12.562499999999998	28.800000000000004	-3.675	1.0	75.0	1	75.0	29.918															
	350	17.738	4.824	11.059	-1.411	1.0	28.8	1	28.800000000000004	6.676															
	351	21.4925	4.824	11.059	-1.411	1.0	28.8	1	28.800000000000004	14.185															
	351	19.996	4.824	11.059	-1.411	1.0	28.8	1	28.800000000000004	11.192															
	351	19.417	4.824	11.059	-1.411	1.0	28.8	1	28.800000000000004	10.034															
	354	71.5885	21.89	55.99000000000001	-12.21	1.0	110.0	1	110.00000000000001	33.177															
	356	22.006	5.081	11.648	-1.486	1.0	30.33	1	30.333	13.679															
	356	17.979	5.081	11.648	-1.486	1.0	30.33	1	30.333	5.625															
	356	0.0	0.0	11.648	-1.486	1.0	30.33	0	30.333	12.388															
	357	13.687	3.6464999999999996	9.879	-2.586	1.0	21.2	1	21.2	6.174															
	358	36.4625	8.819	20.218	-2.58	1.0	52.65	1	52.65	20.275															
	358	38.8985	8.819	20.218	-2.58	1.0	52.65	1	52.65	25.147															
	358	36.023	8.819	20.218	-2.58	1.0	52.65	1	52.65	19.396															
	358	0.0	0.0	20.218	-2.58	1.0	52.65	0	52.65	15.946															
	359	0.0	0.0	14.048	-3.064	1.0	27.6	0	27.6	11.587															
	359	20.4465	5.492	14.048	-3.064	1.0	27.6	1	27.6	13.293															
	362	392.1035	121.346	328.763	-86.071	1.0	705.5	1	705.5	78.707															
	363	391.8455	121.346	328.763	-86.071	1.0	705.5	1	705.5	78.191															
	364	0.0	0.0	328.763	-86.071	1.0	705.5	0	705.5	259.966															
	365	495.8065	121.346	328.763	-86.071	1.0	705.5	1	705.5	286.113															
	367	11.3645	3.4334999999999996	7.872	-1.005	1.0	20.5	1	20.5	2.229															
	368	14.7755	3.4334999999999996	7.872	-1.005	1.0	20.5	1	20.5	9.051															
	368	0.0	0.0	7.872	-1.005	1.0	20.5	0	20.5	6.32															
	369	0.0	0.0	7.872	-1.005	1.0	20.5	0	20.5	9.565															
	371	178.966	48.8825	132.437	-34.672	1.0	284.2	1	284.2	73.732															
	372	209.049	48.8825	132.437	-34.672	1.0	284.2	1	284.2	133.898															
	375	15.879499999999998	4.975	12.725	-2.775	1.0	25.0	1	25.0	6.7589999999999995															
	378	148.7015	46.123	117.973	-25.727	1.0	231.77	1	231.77500000000003	65.628															
	379	149.218	46.123	117.973	-25.727	1.0	231.77	1	231.77500000000003	66.661															
	380	131.406	46.123	117.973	-25.727	1.0	231.77	1	231.77500000000003	31.037															
	381	172.6965	46.123	117.973	-25.727	1.0	231.77	1	231.77500000000003	113.618															
	382	0.0	0.0	2.842	-0.363	1.0	7.4	0	7.400000000000001	3.5539999999999994															
	382	5.1625	1.2395	2.842	-0.363	1.0	7.4	1	7.400000000000001	2.925															
	382	4.139	1.2395	2.842	-0.363	1.0	7.4	1	7.400000000000001	0.878															
	382	4.7965	1.2395	2.842	-0.363	1.0	7.4	1	7.400000000000001	2.193															
	384	0.0	0.0	5.76	-0.735	1.0	15.0	0	15.0	5.179															
	384	11.1675	2.5125	5.76	-0.735	1.0	15.0	1	15.0	7.335															
	384	9.073	2.5125	5.76	-0.735	1.0	15.0	1	15.0	3.1460000000000004															
	384	8.689	2.5125	5.76	-0.735	1.0	15.0	1	15.0	2.378															
	386	47.404	11.2785	25.856	-3.299	1.0	67.33	1	67.333	27.474999999999998															
	386	48.736	11.2785	25.856	-3.299	1.0	67.33	1	67.333	30.139															
	386	39.1825	11.2785	25.856	-3.299	1.0	67.33	1	67.333	11.032															
	386	46.2705	11.2785	25.856	-3.299	1.0	67.33	1	67.333	25.208															
	386	39.964	11.2785	25.856	-3.299	1.0	67.33	1	67.333	12.595															
	386	0.0	0.0	25.856	-3.299	1.0	67.33	0	67.333	7.468															
	391	89.373	28.158	72.023	-15.707	1.0	141.5	1	141.5	37.246															
	392	0.0	0.0	72.023	-15.707	1.0	141.5	0	141.5	45.823															
	393	0.0	0.0	72.023	-15.707	1.0	141.5	0	141.5	59.80599999999999															
	394	0.0	0.0	72.023	-15.707	1.0	141.5	0	141.5	46.001															
	395	19.08	4.9415	11.328	-1.445	1.0	29.5	1	29.5	8.66															
	395	21.751	4.9415	11.328	-1.445	1.0	29.5	1	29.5	14.002															
	396	22.052	4.9415	11.328	-1.445	1.0	29.5	1	29.5	14.604000000000001															
	396	18.506	4.9415	11.328	-1.445	1.0	29.5	1	29.5	7.512															
	396	17.8405	4.9415	11.328	-1.445	1.0	29.5	1	29.5	6.181															
	396	21.674	4.9415	11.328	-1.445	1.0	29.5	1	29.5	13.848000000000003															
	398	53.8725	15.787499999999998	40.381	-8.806	1.0	79.33	1	79.333	28.412															
	398	53.117999999999995	15.787499999999998	40.381	-8.806	1.0	79.33	1	79.333	26.903															
	398	48.24	15.787499999999998	40.381	-8.806	1.0	79.33	1	79.333	17.147															
	398	48.8045	15.787499999999998	40.381	-8.806	1.0	79.33	1	79.333	18.276															
	398	55.47	15.787499999999998	40.381	-8.806	1.0	79.33	1	79.333	31.607000000000003															
	398	53.4175	15.787499999999998	40.381	-8.806	1.0	79.33	1	79.333	27.502															
	399	0.8630000000000001	0.251	0.576	-0.074	1.0	1.5	1	1.5	0.22599999999999998															
	399	0.0	0.0	0.576	-0.074	1.0	1.5	0	1.5	0.589															
	401	0.0	0.0	31.176	-6.799000000000001	1.0	61.25	0	61.25000000000001	22.338															
	402	42.557	12.1885	31.176	-6.799000000000001	1.0	61.25	1	61.25000000000001	23.864															
	404	31.010000000000005	7.1185	16.32	-2.083	1.0	42.5	1	42.5	19.52															
	404	29.0165	7.1185	16.32	-2.083	1.0	42.5	1	42.5	15.533															
	404	27.7565	7.1185	16.32	-2.083	1.0	42.5	1	42.5	13.013															
	404	27.5805	7.1185	16.32	-2.083	1.0	42.5	1	42.5	12.661															
	407	63.99349999999999	21.691	55.481	-12.099	1.0	109.0	1	109.00000000000001	18.987															
	408	61.8655	21.691	55.481	-12.099	1.0	109.0	1	109.00000000000001	14.731															
	409	70.785	21.691	55.481	-12.099	1.0	109.0	1	109.00000000000001	32.57															
	410	65.653	21.691	55.481	-12.099	1.0	109.0	1	109.00000000000001	22.306															
	411	61.5715	21.691	55.481	-12.099	1.0	109.0	1	109.00000000000001	14.143															
	412	66.2415	21.691	55.481	-12.099	1.0	109.0	1	109.00000000000001	23.483															
	413	32.777	9.0285	20.698	-2.641	1.0	53.9	1	53.900000000000006	11.654															
	416	0.0	0.0	165.029	-43.205	1.0	354.14	0	354.14	67.963															
	417	242.65699999999998	60.912	165.029	-43.205	1.0	354.14	1	354.14	131.174															
	418	0.0	0.0	165.029	-43.205	1.0	354.14	0	354.14	149.645															
	419	205.3915	60.912	165.029	-43.205	1.0	354.14	1	354.14	56.643															
	420	211.0205	60.912	165.029	-43.205	1.0	354.14	1	354.14	67.901															
	421	0.0	0.0	26.213000000000005	-5.717	1.0	51.5	0	51.5	24.828															
	421	37.7185	10.248	26.213000000000005	-5.717	1.0	51.5	1	51.5	23.937															
	424	191.3985	46.44	125.82	-32.94	1.0	270.0	1	270.0	112.797															
	425	0.0	0.0	125.82	-32.94	1.0	270.0	0	270.0	87.627															
	426	186.408	46.44	125.82	-32.94	1.0	270.0	1	270.0	102.816															
	427	184.922	46.44	125.82	-32.94	1.0	270.0	1	270.0	99.844															
	428	0.0	0.0	125.82	-32.94	1.0	270.0	0	270.0	67.953															
	431	139.595	44.775	114.525	-24.975	1.0	225.0	1	225.0	54.18999999999999															
	432	166.877	44.775	114.525	-24.975	1.0	225.0	1	225.0	108.75399999999999															
	433	150.335	44.775	114.525	-24.975	1.0	225.0	1	225.0	75.67															
	434	157.032	44.775	114.525	-24.975	1.0	225.0	1	225.0	89.064															
	437	0.0	0.0	114.82999999999998	-25.042	1.0	225.6	0	225.59999999999997	110.17000000000002															
	438	0.0	0.0	114.82999999999998	-25.042	1.0	225.6	0	225.59999999999997	58.277															
	439	157.882	44.894	114.82999999999998	-25.042	1.0	225.6	1	225.59999999999997	90.164															
	440	128.7	44.894	114.82999999999998	-25.042	1.0	225.6	1	225.59999999999997	31.8															
	441	27.017000000000003	7.152500000000001	16.397	-2.092	1.0	42.7	1	42.7	11.334															
	441	30.287999999999997	7.152500000000001	16.397	-2.092	1.0	42.7	1	42.7	17.876															
	441	29.197500000000005	7.152500000000001	16.397	-2.092	1.0	42.7	1	42.7	15.695															
	443	0.0	0.0	1.527	-0.333	1.0	3.0	0	3.0	1.43															
	443	0.0	0.0	1.527	-0.333	1.0	3.0	0	3.0	0.466															
	444	2.0705	0.597	1.527	-0.333	1.0	3.0	1	3.0	1.141															
	444	0.0	0.0	1.527	-0.333	1.0	3.0	0	3.0	1.295															
	448	206.461	48.7345	132.036	-34.567	1.0	283.34	1	283.34	129.582															
	449	210.545	48.7345	132.036	-34.567	1.0	283.34	1	283.34	137.75															
	450	198.3295	48.7345	132.036	-34.567	1.0	283.34	1	283.34	113.31899999999999															
	451	183.774	48.7345	132.036	-34.567	1.0	283.34	1	283.34	84.208															
	452	174.746	48.7345	132.036	-34.567	1.0	283.34	1	283.34	66.152															
	453	0.0	0.0	9.331	-1.191	1.0	24.3	0	24.3	11.536															
	453	17.6065	4.07	9.331	-1.191	1.0	24.3	1	24.3	10.913															
	453	16.7525	4.07	9.331	-1.191	1.0	24.3	1	24.3	9.205															
	456	131.5465	37.213	95.183	-20.757	1.0	187.0	1	187.0	76.093															
	457	116.005	37.213	95.183	-20.757	1.0	187.0	1	187.0	45.01															
	458	108.6965	37.213	95.183	-20.757	1.0	187.0	1	187.0	30.393000000000004															
	459	131.5655	37.213	95.183	-20.757	1.0	187.0	1	187.0	76.131															
	462	192.012	54.579	139.602	-30.444	1.0	274.27	1	274.267	109.75700000000002															
	463	176.318	54.579	139.602	-30.444	1.0	274.27	1	274.267	78.369															
	464	0.0	0.0	139.602	-30.444	1.0	274.27	0	274.267	58.53499999999999															
	466	17.9105	4.2295	9.696	-1.237	1.0	25.25	1	25.25	10.571															
	466	15.498000000000001	4.2295	9.696	-1.237	1.0	25.25	1	25.25	5.746															
	470	372.7975	96.75	262.125	-68.625	1.0	562.5	1	562.5	183.095															
	471	326.623	96.75	262.125	-68.625	1.0	562.5	1	562.5	90.746															
	472	16.1055	4.876	12.471	-2.719	1.0	24.5	1	24.5	7.710999999999999															
	472	17.4695	4.876	12.471	-2.719	1.0	24.5	1	24.5	10.439															
	475	0.0	0.0	11.213	-1.431	1.0	29.2	0	29.2	9.221															
	475	16.712	4.891	11.213	-1.431	1.0	29.2	1	29.2	4.224															
	476	21.567	4.891	11.213	-1.431	1.0	29.2	1	29.2	13.934															
	478	34.6005	9.811	25.094	-5.472	1.0	49.3	1	49.3	19.901															
	478	34.2015	9.811	25.094	-5.472	1.0	49.3	1	49.3	19.103															
	481	0.0	0.0	187.593	-49.112	1.0	402.56	0	402.56	154.153															
	482	0.0	0.0	187.593	-49.112	1.0	402.56	0	402.56	86.185															
	483	295.8225	69.2405	187.593	-49.112	1.0	402.56	1	402.56	189.085															
	484	258.232	69.2405	187.593	-49.112	1.0	402.56	1	402.56	113.90400000000001															
	485	0.0	0.0	187.593	-49.112	1.0	402.56	0	402.56	56.891999999999996															
	486	16.2365	4.8295	11.072	-1.413	1.0	28.83	1	28.833	3.64															
	486	20.6945	4.8295	11.072	-1.413	1.0	28.83	1	28.833	12.556000000000001															
	486	0.0	0.0	11.072	-1.413	1.0	28.83	0	28.833	13.66															
...
];

%% branch data
%    f_bus    t_bus    r    x    b    rateA    rateB    rateC    ratio    angle    status    angmin    angmax
mpc.branch = [
	2	212	0.0154525	0.0792528	0.0268017	239.94	239.94	239.94	0	0	1	-29.999999999999996	29.999999999999996								
	3	53	0.00358046	0.0258456	0.0131628	260.03	260.03	260.03	0	0	1	-29.999999999999996	29.999999999999996								
	3	53	0.00358046	0.0258456	0.0131628	260.03	260.03	260.03	0	0	1	-29.999999999999996	29.999999999999996								
	3	213	0.00319977	0.0219502	0.0125158	256.59	256.59	256.59	0	0	1	-29.999999999999996	29.999999999999996								
	4	5	0.00696197	0.0360534	0.0111497	218.77	218.77	218.77	0	0	1	-29.999999999999996	29.999999999999996								
	4	331	0.00775811	0.0380507	0.0134745	227.23	227.23	227.23	0	0	1	-29.999999999999996	29.999999999999996								
	5	331	0.00487853	0.02675	0.00815727	198.63	198.63	198.63	0	0	1	-29.999999999999996	29.999999999999996								
	5	351	0.0124676	0.0654224	0.0163807	269.59	269.59	269.59	0	0	1	-29.999999999999996	29.999999999999996								
	6	331	0.0051151	0.0236629	0.0391647	336.94	336.94	336.94	0	0	1	-29.999999999999996	29.999999999999996								
	8	461	0.00268087	0.0132507	0.00588479	232.72999999999996	232.72999999999996	232.72999999999996	0	0	1	-29.999999999999996	29.999999999999996								
	10	11	0.0133436	0.0919039	0.0115271	212.51	212.51	212.51	0	0	1	-29.999999999999996	29.999999999999996								
	10	406	0.00631471	0.0440302	0.0307124	216.36	216.36	216.36	0	0	1	-29.999999999999996	29.999999999999996								
	11	58	0.0286556	0.128792	0.0377904	204.21	204.21	204.21	0	0	1	-29.999999999999996	29.999999999999996								
	12	10	0.00363287	0.0200568	0.0589258	206.36999999999998	206.36999999999998	206.36999999999998	0	0	1	-29.999999999999996	29.999999999999996								
	12	406	0.00340925	0.0206369	0.0061444	233.31999999999996	233.31999999999996	233.31999999999996	0	0	1	-29.999999999999996	29.999999999999996								
	13	17	0.0100597	0.0575367	0.0312509	227.85999999999999	227.85999999999999	227.85999999999999	0	0	1	-29.999999999999996	29.999999999999996								
	14	156	0.00832308	0.0444584	0.0151703	264.27	264.27	264.27	0	0	1	-29.999999999999996	29.999999999999996								
	15	55	0.0113961	0.0625895	0.0161825	218.52	218.52	218.52	0	0	1	-29.999999999999996	29.999999999999996								
	16	162	0.012951	0.0665246	0.0176437	224.35	224.35	224.35	0	0	1	-29.999999999999996	29.999999999999996								
	16	304	0.00759675	0.0410247	0.0264718	236.53999999999996	236.53999999999996	236.53999999999996	0	0	1	-29.999999999999996	29.999999999999996								
	18	19	0.0106007	0.0397642	0.0085879	245.27	245.27	245.27	0	0	1	-29.999999999999996	29.999999999999996								
	18	81	0.00978753	0.0448943	0.023169	223.47000000000003	223.47000000000003	223.47000000000003	0	0	1	-29.999999999999996	29.999999999999996								
	18	310	0.004373	0.0260086	0.0242791	277.5	277.5	277.5	0	0	1	-29.999999999999996	29.999999999999996								
	18	310	0.004373	0.0260086	0.0242791	277.5	277.5	277.5	0	0	1	-29.999999999999996	29.999999999999996								
	19	141	0.00579211	0.0290206	0.0189553	250.99999999999997	250.99999999999997	250.99999999999997	0	0	1	-29.999999999999996	29.999999999999996								
	19	436	0.00397383	0.0271653	0.0337435	212.6	212.6	212.6	0	0	1	-29.999999999999996	29.999999999999996								
	20	22	0.000207968	0.00111847	0.0	99999.0	99999.0	99999.0	0	0	1	-29.999999999999996	29.999999999999996								
	21	23	0.00250938	0.0172465	0.0313608	248.08000000000004	248.08000000000004	248.08000000000004	0	0	1	-29.999999999999996	29.999999999999996								
	22	295	0.0015308	0.016473	0.364525	1075.02	1075.02	1075.02	0	0	1	-29.999999999999996	29.999999999999996								
	22	405	0.002026	0.028747	1.00897	1001.4599999999999	1001.4599999999999	1001.4599999999999	0	0	1	-29.999999999999996	29.999999999999996								
	23	179	0.008727	0.054891	0.034891	236.33	236.33	236.33	0	0	1	-29.999999999999996	29.999999999999996								
	24	4	0.00353554	0.0227525	0.0272812	241.53000000000003	241.53000000000003	241.53000000000003	0	0	1	-29.999999999999996	29.999999999999996								
	24	56	0.00957472	0.0499942	0.0131242	244.03	244.03	244.03	0	0	1	-29.999999999999996	29.999999999999996								
	25	27	0.000257042	0.00119754	0.0	99999.0	99999.0	99999.0	0	0	1	-29.999999999999996	29.999999999999996								
	25	314	0.00158469	0.0214403	0.275456	1151.39	1151.39	1151.39	0	0	1	-29.999999999999996	29.999999999999996								
	28	29	0.0121765	0.0608641	0.0130017	207.91	207.91	207.91	0	0	1	-29.999999999999996	29.999999999999996								
	28	30	0.00432531	0.0200998	0.00802657	230.9	230.9	230.9	0	0	1	-29.999999999999996	29.999999999999996								
	29	356	0.00799791	0.0387782	0.0352203	188.9	188.9	188.9	0	0	1	-29.999999999999996	29.999999999999996								
	30	26	0.00666488	0.0320152	0.0220243	304.68	304.68	304.68	0	0	1	-29.999999999999996	29.999999999999996								
	31	228	0.008946	0.057044	0.025829	280.0	280.0	280.0	0	0	1	-29.999999999999996	29.999999999999996								
	31	296	0.00518286	0.0326049	0.0584572	358.79	358.79	358.79	0	0	1	-29.999999999999996	29.999999999999996								
	31	415	0.0113363	0.0554702	0.0432148	231.46	231.46	231.46	0	0	1	-29.999999999999996	29.999999999999996								
	33	32	0.00681448	0.0338755	0.0131701	196.59	196.59	196.59	0	0	1	-29.999999999999996	29.999999999999996								
	34	33	0.00341126	0.0247052	0.0295283	270.99	270.99	270.99	0	0	1	-29.999999999999996	29.999999999999996								
	34	33	0.00341126	0.0247052	0.0295283	270.99	270.99	270.99	0	0	1	-29.999999999999996	29.999999999999996								
	35	40	0.00293506	0.0185201	0.00990083	228.32	228.32	228.32	0	0	1	-29.999999999999996	29.999999999999996								
	35	42	0.00449505	0.0326042	0.0129473	276.08	276.08	276.08	0	0	1	-29.999999999999996	29.999999999999996								
	36	2	0.00289863	0.0167658	0.0148842	188.66	188.66	188.66	0	0	1	-29.999999999999996	29.999999999999996								
	36	33	0.00284038	0.0206656	0.011617	213.45000000000002	213.45000000000002	213.45000000000002	0	0	0	-29.999999999999996	29.999999999999996								
	37	35	0.00780774	0.0366615	0.0156035	218.76	218.76	218.76	0	0	1	-29.999999999999996	29.999999999999996								
	37	44	0.00830767	0.0554788	0.0311844	200.99	200.99	200.99	0	0	1	-29.999999999999996	29.999999999999996								
	38	39	0.00316109	0.0157664	0.019275	252.83	252.83	252.83	0	0	1	-29.999999999999996	29.999999999999996								
	38	49	0.0106902	0.0689767	0.0297214	204.2	204.2	204.2	0	0	1	-29.999999999999996	29.999999999999996								
	39	35	0.00384653	0.022595	0.0115165	259.81	259.81	259.81	0	0	1	-29.999999999999996	29.999999999999996								
	39	35	0.00384653	0.022595	0.0115165	259.81	259.81	259.81	0	0	1	-29.999999999999996	29.999999999999996								
	39	361	0.00410223	0.0323982	0.0223687	296.76	296.76	296.76	0	0	1	-29.999999999999996	29.999999999999996								
	39	361	0.00410223	0.0323982	0.0223687	296.76	296.76	296.76	0	0	1	-29.999999999999996	29.999999999999996								
	39	361	0.00410223	0.0323982	0.0223687	296.76	296.76	296.76	0	0	0	-29.999999999999996	29.999999999999996								
	41	43	0.000233031	0.00104503	0.0	99999.0	99999.0	99999.0	0	0	1	-29.999999999999996	29.999999999999996								
	42	40	0.00435644	0.0248836	0.0126137	308.21	308.21	308.21	0	0	1	-29.999999999999996	29.999999999999996								
	43	54	0.00111725	0.0133249	0.292213	1210.87	1210.87	1210.87	0	0	1	-29.999999999999996	29.999999999999996								
	43	498	0.00161178	0.0198636	0.286039	1210.03	1210.03	1210.03	0	0	1	-29.999999999999996	29.999999999999996								
	44	42	0.00483059	0.022229	0.00975406	240.20999999999998	240.20999999999998	240.20999999999998	0	0	1	-29.999999999999996	29.999999999999996								
	45	36	0.00469767	0.0323288	0.00954514	196.67	196.67	196.67	0	0	1	-29.999999999999996	29.999999999999996								
	45	37	0.00411194	0.0226471	0.0067485	223.09	223.09	223.09	0	0	1	-29.999999999999996	29.999999999999996								
	46	45	0.0023403	0.0128024	0.0123531	401.85	401.85	401.85	0	0	1	-29.999999999999996	29.999999999999996								
	46	50	0.00351582	0.0151322	0.0225659	213.18	213.18	213.18	0	0	1	-29.999999999999996	29.999999999999996								
	46	51	0.00390017	0.0201794	0.0263679	290.75	290.75	290.75	0	0	1	-29.999999999999996	29.999999999999996								
	46	51	0.00390017	0.0201794	0.0263679	290.75	290.75	290.75	0	0	1	-29.999999999999996	29.999999999999996								
	46	214	0.00565635	0.0285577	0.0458282	324.34	324.34	324.34	0	0	1	-29.999999999999996	29.999999999999996								
	47	40	0.00542345	0.0298445	0.00973297	209.65000000000003	209.65000000000003	209.65000000000003	0	0	1	-29.999999999999996	29.999999999999996								
	48	50	0.00493315	0.0197057	0.0266381	231.0	231.0	231.0	0	0	1	-29.999999999999996	29.999999999999996								
	48	480	0.0141266	0.063385	0.013796	270.01	270.01	270.01	0	0	1	-29.999999999999996	29.999999999999996								
	49	47	0.00274605	0.0168842	0.011861	210.29	210.29	210.29	0	0	1	-29.999999999999996	29.999999999999996								
	50	49	0.00420333	0.0189576	0.00848235	263.28	263.28	263.28	0	0	1	-29.999999999999996	29.999999999999996								
	50	51	0.00306979	0.0198041	0.0129611	299.51	299.51	299.51	0	0	1	-29.999999999999996	29.999999999999996								
	51	48	0.00285314	0.0207706	0.0111933	206.02999999999997	206.02999999999997	206.02999999999997	0	0	1	-29.999999999999996	29.999999999999996								
	51	70	0.00927047	0.0420854	0.0202396	302.02	302.02	302.02	0	0	1	-29.999999999999996	29.999999999999996								
	51	357	0.00606199	0.0375019	0.0462067	281.97	281.97	281.97	0	0	1	-29.999999999999996	29.999999999999996								
	51	357	0.00606199	0.0375019	0.0462067	281.97	281.97	281.97	0	0	1	-29.999999999999996	29.999999999999996								
	51	357	0.00606199	0.0375019	0.0462067	281.97	281.97	281.97	0	0	1	-29.999999999999996	29.999999999999996								
	52	54	0.000209023	0.00101092	0.0	99999.0	99999.0	99999.0	0	0	1	-29.999999999999996	29.999999999999996								
	53	32	0.00540244	0.030335	0.00829098	226.77	226.77	226.77	0	0	1	-29.999999999999996	29.999999999999996								
	53	36	0.00511899	0.0318872	0.0170703	230.21000000000004	230.21000000000004	230.21000000000004	0	0	1	-29.999999999999996	29.999999999999996								
	53	45	0.00448796	0.0251172	0.0179586	273.78	273.78	273.78	0	0	1	-29.999999999999996	29.999999999999996								
	53	45	0.00448796	0.0251172	0.0179586	273.78	273.78	273.78	0	0	1	-29.999999999999996	29.999999999999996								
	55	72	0.00255071	0.0145816	0.0529998	202.42	202.42	202.42	0	0	1	-29.999999999999996	29.999999999999996								
	57	66	0.012542	0.0731735	0.0174808	188.33	188.33	188.33	0	0	1	-29.999999999999996	29.999999999999996								
	57	161	0.0318774	0.176516	0.0907922	198.2	198.2	198.2	0	0	1	-29.999999999999996	29.999999999999996								
	57	255	0.00718102	0.0390624	0.0537424	300.0	300.0	300.0	0	0	1	-29.999999999999996	29.999999999999996								
	58	59	0.00838826	0.044004	0.0215912	282.33	282.33	282.33	0	0	1	-29.999999999999996	29.999999999999996								
	59	179	0.0199692	0.12545	0.0343653	209.05	209.05	209.05	0	0	1	-29.999999999999996	29.999999999999996								
	60	211	0.0107783	0.0696549	0.0231844	234.89	234.89	234.89	0	0	1	-29.999999999999996	29.999999999999996								
	61	469	0.00533577	0.0355112	0.0133687	209.34	209.34	209.34	0	0	1	-29.999999999999996	29.999999999999996								
	62	169	0.0229231	0.141757	0.0331327	284.38	284.38	284.38	0	0	1	-29.999999999999996	29.999999999999996								
	62	245	0.0171145	0.104922	0.0526062	205.64	205.64	205.64	0	0	1	-29.999999999999996	29.999999999999996								
	62	271	0.0225085	0.129199	0.0416435	215.63	215.63	215.63	0	0	1	-29.999999999999996	29.999999999999996								
	63	396	0.00684768	0.035438	0.0555983	276.04	276.04	276.04	0	0	1	-29.999999999999996	29.999999999999996								
	63	396	0.00684768	0.035438	0.0555983	318.9	318.9	318.9	0	0	1	-29.999999999999996	29.999999999999996								
	64	308	0.0045429	0.0249656	0.0222506	204.94	204.94	204.94	0	0	1	-29.999999999999996	29.999999999999996								
	65	118	0.00682259	0.0489818	0.0291852	187.98	187.98	187.98	0	0	1	-29.999999999999996	29.999999999999996								
	65	122	0.0114556	0.0789436	0.0221672	223.13	223.13	223.13	0	0	1	-29.999999999999996	29.999999999999996								
	66	180	0.013631	0.0750424	0.0174066	212.27	212.27	212.27	0	0	1	-29.999999999999996	29.999999999999996								
	67	415	0.0105199	0.0574565	0.0373877	237.15	237.15	237.15	0	0	1	-29.999999999999996	29.999999999999996								
	68	159	0.00605992	0.0375113	0.0255276	229.73	229.73	229.73	0	0	1	-29.999999999999996	29.999999999999996								
	68	377	0.00417649	0.0277901	0.0160845	244.32	244.32	244.32	0	0	1	-29.999999999999996	29.999999999999996								
	69	1	0.0263485	0.135443	0.0504152	230.13	230.13	230.13	0	0	1	-29.999999999999996	29.999999999999996								
	69	263	0.0303392	0.0797752	0.029101	203.37	203.37	203.37	0	0	1	-29.999999999999996	29.999999999999996								
	70	357	0.00846265	0.0516422	0.0102433	188.28	188.28	188.28	0	0	1	-29.999999999999996	29.999999999999996								
	70	480	0.00434341	0.0202377	0.00802619	410.92	410.92	410.92	0	0	1	-29.999999999999996	29.999999999999996								
	71	6	0.0078159	0.0497093	0.0146629	266.45	266.45	266.45	0	0	1	-29.999999999999996	29.999999999999996								
	71	236	0.00800132	0.0463031	0.04138	201.33	201.33	201.33	0	0	1	-29.999999999999996	29.999999999999996								
	72	138	0.00444643	0.0351083	0.0127807	207.54999999999998	207.54999999999998	207.54999999999998	0	0	1	-29.999999999999996	29.999999999999996								
	73	72	0.00533244	0.0343247	0.0255959	220.8	220.8	220.8	0	0	1	-29.999999999999996	29.999999999999996								
	73	147	0.00440739	0.0228773	0.164518	299.52	299.52	299.52	0	0	1	-29.999999999999996	29.999999999999996								
	74	96	0.00818286	0.0350286	0.0519578	247.18999999999997	247.18999999999997	247.18999999999997	0	0	1	-29.999999999999996	29.999999999999996								
	74	267	0.00959142	0.0610596	0.0235834	231.57000000000002	231.57000000000002	231.57000000000002	0	0	1	-29.999999999999996	29.999999999999996								
	75	8	0.00464284	0.0333214	0.0209588	200.72	200.72	200.72	0	0	1	-29.999999999999996	29.999999999999996								
	75	358	0.0102235	0.0653	0.0229694	188.8	188.8	188.8	0	0	1	-29.999999999999996	29.999999999999996								
	76	87	0.00734959	0.0479733	0.0311735	229.57	229.57	229.57	0	0	1	-29.999999999999996	29.999999999999996								
	76	98	0.00991719	0.0433979	0.0140715	204.48	204.48	204.48	0	0	1	-29.999999999999996	29.999999999999996								
	77	79	0.00410741	0.0215648	0.0277571	211.27000000000004	211.27000000000004	211.27000000000004	0	0	1	-29.999999999999996	29.999999999999996								
	77	107	0.0117458	0.0474083	0.0162089	218.26	218.26	218.26	0	0	1	-29.999999999999996	29.999999999999996								
	78	107	0.0111029	0.0647119	0.0107653	206.24	206.24	206.24	0	0	1	-29.999999999999996	29.999999999999996								
	78	175	1.0e-7	0.03	0.0	99999.0	99999.0	99999.0	0	0	1	-29.999999999999996	29.999999999999996								
	79	78	0.00255254	0.0159622	0.00899812	202.99999999999997	202.99999999999997	202.99999999999997	0	0	1	-29.999999999999996	29.999999999999996								
	79	107	0.00331842	0.0132353	0.0146141	250.45999999999998	250.45999999999998	250.45999999999998	0	0	1	-29.999999999999996	29.999999999999996								
	80	348	0.00704419	0.0429071	0.0164992	208.58000000000004	208.58000000000004	208.58000000000004	0	0	1	-29.999999999999996	29.999999999999996								
	81	83	0.00531978	0.0288681	0.0129334	207.61	207.61	207.61	0	0	1	-29.999999999999996	29.999999999999996								
	81	166	0.00541342	0.0336256	0.0795896	293.17	293.17	293.17	0	0	1	-29.999999999999996	29.999999999999996								
	81	229	0.00312946	0.0211726	0.124132	215.35999999999999	215.35999999999999	215.35999999999999	0	0	1	-29.999999999999996	29.999999999999996								
	82	266	0.0114333	0.0592337	0.0223159	204.89	204.89	204.89	0	0	1	-29.999999999999996	29.999999999999996								
	82	310	0.0131116	0.0919649	0.0333501	257.15	257.15	257.15	0	0	1	-29.999999999999996	29.999999999999996								
	83	430	0.0054217	0.0345595	0.00848049	222.55	222.55	222.55	0	0	1	-29.999999999999996	29.999999999999996								
	84	139	0.00435711	0.0190405	0.0137408	210.31999999999996	210.31999999999996	210.31999999999996	0	0	1	-29.999999999999996	29.999999999999996								
	84	195	0.00929083	0.0588771	0.0219609	259.57	259.57	259.57	0	0	1	-29.999999999999996	29.999999999999996								
	84	195	0.00929083	0.0588771	0.0219609	259.57	259.57	259.57	0	0	1	-29.999999999999996	29.999999999999996								
	84	266	0.00501492	0.0413843	0.0291757	246.13	246.13	246.13	0	0	1	-29.999999999999996	29.999999999999996								
	84	436	0.00700667	0.0414708	0.015102	258.28	258.28	258.28	0	0	1	-29.999999999999996	29.999999999999996								
	85	161	0.00894783	0.0484215	0.0154075	177.52	177.52	177.52	0	0	1	-29.999999999999996	29.999999999999996								
	86	91	0.00643134	0.0345851	0.0231473	223.14	223.14	223.14	0	0	1	-29.999999999999996	29.999999999999996								
	87	86	0.00619339	0.0427095	0.00952131	237.27999999999997	237.27999999999997	237.27999999999997	0	0	1	-29.999999999999996	29.999999999999996								
	87	89	0.00793475	0.0435997	0.0184649	258.25	258.25	258.25	0	0	1	-29.999999999999996	29.999999999999996								
	87	274	0.0196035	0.0686154	0.0349382	292.99	292.99	292.99	0	0	1	-29.999999999999996	29.999999999999996								
	87	274	0.0196035	0.0686154	0.0349382	292.99	292.99	292.99	0	0	1	-29.999999999999996	29.999999999999996								
	88	86	0.00619872	0.0363008	0.0141733	239.41999999999996	239.41999999999996	239.41999999999996	0	0	1	-29.999999999999996	29.999999999999996								
	89	91	0.00819369	0.0464744	0.00929417	259.02	259.02	259.02	0	0	1	-29.999999999999996	29.999999999999996								
	90	92	0.000270441	0.00111124	0.0	99999.0	99999.0	99999.0	0	0	1	-29.999999999999996	29.999999999999996								
	90	273	0.00115634	0.013527	0.194866	1462.73	1462.73	1462.73	0	0	1	-29.999999999999996	29.999999999999996								
	91	143	0.00923127	0.055819	0.0278186	236.39999999999998	236.39999999999998	236.39999999999998	0	0	1	-29.999999999999996	29.999999999999996								
	94	239	0.00830591	0.0293227	0.00963458	256.91	256.91	256.91	0	0	1	-29.999999999999996	29.999999999999996								
	95	100	0.00486868	0.0263368	0.0205417	208.4	208.4	208.4	0	0	1	-29.999999999999996	29.999999999999996								
	95	205	0.0121886	0.0614622	0.0273777	174.34	174.34	174.34	0	0	1	-29.999999999999996	29.999999999999996								
	97	90	0.00120165	0.0138189	0.259737	1139.35	1139.35	1139.35	0	0	1	-29.999999999999996	29.999999999999996								
	97	99	0.000275423	0.00105221	0.0	99999.0	99999.0	99999.0	0	0	1	-29.999999999999996	29.999999999999996								
	97	273	0.00243082	0.0302411	0.519784	1267.29	1267.29	1267.29	0	0	1	-29.999999999999996	29.999999999999996								
	97	405	0.00207844	0.0243675	0.524041	1074.6	1074.6	1074.6	0	0	1	-29.999999999999996	29.999999999999996								
	98	101	0.00804282	0.0445249	0.0172134	306.67	306.67	306.67	0	0	1	-29.999999999999996	29.999999999999996								
	100	101	0.00296664	0.0146402	0.0208753	253.07	253.07	253.07	0	0	1	-29.999999999999996	29.999999999999996								
	101	126	0.0135607	0.0668913	0.0172284	191.2	191.2	191.2	0	0	1	-29.999999999999996	29.999999999999996								
	102	69	0.00789353	0.0491556	0.052004	227.8	227.8	227.8	0	0	1	-29.999999999999996	29.999999999999996								
	102	103	0.00616992	0.040555	0.0247805	209.35000000000002	209.35000000000002	209.35000000000002	0	0	1	-29.999999999999996	29.999999999999996								
	103	219	0.0165793	0.0810327	0.0235267	219.57	219.57	219.57	0	0	1	-29.999999999999996	29.999999999999996								
	103	376	0.00542668	0.0326243	0.0184557	224.43	224.43	224.43	0	0	1	-29.999999999999996	29.999999999999996								
	104	9	0.0120051	0.0621569	0.0229572	191.72	191.72	191.72	0	0	1	-29.999999999999996	29.999999999999996								
	104	163	0.0181989	0.10493	0.0417728	244.45999999999998	244.45999999999998	244.45999999999998	0	0	1	-29.999999999999996	29.999999999999996								
	104	226	0.0129352	0.086119	0.0522159	196.78	196.78	196.78	0	0	1	-29.999999999999996	29.999999999999996								
	105	58	0.0099657	0.0594587	0.0230392	201.81999999999996	201.81999999999996	201.81999999999996	0	0	1	-29.999999999999996	29.999999999999996								
	105	399	0.028421	0.116472	0.031104	224.00000000000003	224.00000000000003	224.00000000000003	0	0	1	-29.999999999999996	29.999999999999996								
	106	108	0.000297923	0.00115791	0.0	99999.0	99999.0	99999.0	0	0	1	-29.999999999999996	29.999999999999996								
	107	206	0.00809361	0.0597339	0.0473542	238.34999999999997	238.34999999999997	238.34999999999997	0	0	1	-29.999999999999996	29.999999999999996								
	108	414	0.00172335	0.0206772	0.504555	1228.85	1228.85	1228.85	0	0	1	-29.999999999999996	29.999999999999996								
	109	200	0.0203907	0.118914	0.0276247	220.15000000000003	220.15000000000003	220.15000000000003	0	0	1	-29.999999999999996	29.999999999999996								
	110	196	0.0042827	0.0235603	0.0191082	216.49000000000004	216.49000000000004	216.49000000000004	0	0	1	-29.999999999999996	29.999999999999996								
	110	398	0.00483279	0.0258082	0.0159547	252.34	252.34	252.34	0	0	1	-29.999999999999996	29.999999999999996								
	111	196	0.00542194	0.0344726	0.0102377	214.05000000000004	214.05000000000004	214.05000000000004	0	0	1	-29.999999999999996	29.999999999999996								
	112	423	0.00423329	0.0285922	0.0763694	249.73000000000002	249.73000000000002	249.73000000000002	0	0	1	-29.999999999999996	29.999999999999996								
	113	260	0.00834035	0.0512955	0.0347496	202.53	202.53	202.53	0	0	1	-29.999999999999996	29.999999999999996								
	113	398	0.00663848	0.0305149	0.0128669	227.33000000000004	227.33000000000004	227.33000000000004	0	0	1	-29.999999999999996	29.999999999999996								
	114	111	0.00910642	0.0400126	0.0159566	208.23000000000002	208.23000000000002	208.23000000000002	0	0	1	-29.999999999999996	29.999999999999996								
	114	398	0.0120679	0.061943	0.023604	226.07	226.07	226.07	0	0	1	-29.999999999999996	29.999999999999996								
	115	77	0.00411865	0.0255403	0.0178958	230.62	230.62	230.62	0	0	1	-29.999999999999996	29.999999999999996								
	115	131	0.00819163	0.0553686	0.0263614	218.92000000000002	218.92000000000002	218.92000000000002	0	0	1	-29.999999999999996	29.999999999999996								
	115	228	0.0126336	0.0592473	0.0119379	217.39	217.39	217.39	0	0	1	-29.999999999999996	29.999999999999996								
	116	206	0.00973095	0.0504602	0.019357	222.37	222.37	222.37	0	0	1	-29.999999999999996	29.999999999999996								
	117	217	0.00511447	0.0253149	0.10592	223.25999999999996	223.25999999999996	223.25999999999996	0	0	1	-29.999999999999996	29.999999999999996								
	119	121	0.000242957	0.0011457	0.0	99999.0	99999.0	99999.0	0	0	1	-29.999999999999996	29.999999999999996								
	120	477	0.00424349	0.0233087	0.157389	190.09	190.09	190.09	0	0	1	-29.999999999999996	29.999999999999996								
	121	151	0.00155598	0.0200038	0.655713	1248.37	1248.37	1248.37	0	0	1	-29.999999999999996	29.999999999999996								
	122	477	0.00591039	0.0286753	0.0112938	248.25999999999996	248.25999999999996	248.25999999999996	0	0	1	-29.999999999999996	29.999999999999996								
	124	24	0.00552089	0.0312098	0.0117206	322.21	322.21	322.21	0	0	1	-29.999999999999996	29.999999999999996								
	124	122	0.00616606	0.0403861	0.0183176	295.24	295.24	295.24	0	0	1	-29.999999999999996	29.999999999999996								
	125	333	0.00816597	0.0423005	0.0261657	268.04	268.04	268.04	0	0	1	-29.999999999999996	29.999999999999996								
	125	453	0.00365157	0.0256689	0.0121744	199.42	199.42	199.42	0	0	1	-29.999999999999996	29.999999999999996								
	127	9	0.00947342	0.0740918	0.0278587	162.26	162.26	162.26	0	0	1	-29.999999999999996	29.999999999999996								
	128	142	0.0176946	0.0991166	0.0248442	180.09	180.09	180.09	0	0	1	-29.999999999999996	29.999999999999996								
	128	164	0.00911283	0.0650041	0.0205367	212.74	212.74	212.74	0	0	1	-29.999999999999996	29.999999999999996								
	129	128	0.00489014	0.0292388	0.0244841	225.74	225.74	225.74	0	0	1	-29.999999999999996	29.999999999999996								
	129	399	0.0189658	0.0973849	0.0559229	249.6	249.6	249.6	0	0	1	-29.999999999999996	29.999999999999996								
	130	179	1.0e-7	0.025	0.0	99999.0	99999.0	99999.0	0	0	1	-29.999999999999996	29.999999999999996								
...
];

%%-----  OPF Data  -----%%
%% cost data
%    1    startup    shutdown    n    x1    y1    ...    xn    yn
%    2    startup    shutdown    n    c(n-1)    ...    c0
mpc.gencost = [
	2	0.0	0.0	3	0.0	30.0	0.0
	2	0.0	0.0	3	0.0016900000000000003	8.281	0.0
	2	0.0	0.0	3	0.001098	9.109	0.0
	2	0.0	0.0	3	0.0	30.0	0.0
	2	0.0	0.0	3	0.0	30.0	0.0
	2	0.0	0.0	3	0.0	30.0	0.0
	2	0.0	0.0	3	0.0	30.0	0.0
	2	0.0	0.0	3	0.01007	18.5	-1.038
	2	0.0	0.0	3	0.01305	18.52	-1.241
	2	0.0	0.0	3	0.019700000000000002	17.87	-1.92
	2	0.0	0.0	3	0.01694	17.82	-1.692
	2	0.0	0.0	3	0.01915	19.41	-2.137
	2	0.0	0.0	3	0.01717	18.52	-1.849
	2	0.0	0.0	3	0.023960000000000002	20.12	-2.329
	2	0.0	0.0	3	0.021150000000000002	16.5	-1.566
	2	0.0	0.0	3	0.0	30.0	0.0
	2	0.0	0.0	3	0.0	30.0	0.0
	2	0.0	0.0	3	0.0	16.97	-1.147
	2	0.0	0.0	3	0.01219	20.990000000000002	-1.359
	2	0.0	0.0	3	0.01066	17.09	-1.219
	2	0.0	0.0	3	0.01344	15.74	-1.309
	2	0.0	0.0	3	0.01579	19.37	-1.534
	2	0.0	0.0	3	0.016	17.23	-1.43
	2	0.0	0.0	3	0.01866	19.15	-1.817
	2	0.0	0.0	3	0.0	30.0	0.0
	2	0.0	0.0	3	0.0	30.0	0.0
	2	0.0	0.0	3	0.0	30.0	0.0
	2	0.0	0.0	3	0.0	30.0	0.0
	2	0.0	0.0	3	0.0	30.0	0.0
	2	0.0	0.0	3	0.0	30.0	0.0
	2	0.0	0.0	3	0.0	30.0	0.0
	2	0.0	0.0	3	0.001698	8.351	0.0
	2	0.0	0.0	3	0.0012180000000000001	9.206	0.0
	2	0.0	0.0	3	0.0012220000000000002	9.188	0.0
	2	0.0	0.0	3	0.01456	22.580000000000002	-2.889
	2	0.0	0.0	3	0.01987	18.43	-2.18
	2	0.0	0.0	3	0.025510000000000005	19.59	-2.757
	2	0.0	0.0	3	0.02119	19.74	-3.255
	2	0.0	0.0	3	0.013340000000000001	19.17	-2.543
	2	0.0	0.0	3	0.01662	18.32	-2.537
	2	0.0	0.0	3	0.01755	17.29	0.0
	2	0.0	0.0	3	0.0	18.68	0.0
	2	0.0	0.0	3	0.0	18.59	0.0
	2	0.0	0.0	3	0.0	20.01	0.0
	2	0.0	0.0	3	0.0	17.63	0.0
	2	0.0	0.0	3	0.01531	18.12	0.0
	2	0.0	0.0	3	0.0	30.0	0.0
	2	0.0	0.0	3	0.0	30.0	0.0
	2	0.0	0.0	3	0.0	30.0	0.0
	2	0.0	0.0	3	0.0	30.0	0.0
	2	0.0	0.0	3	0.0	34.42	-36.1
	2	0.0	0.0	3	0.0	31.18	-42.12
	2	0.0	0.0	3	0.01256	20.31	-1.884
	2	0.0	0.0	3	0.01432	20.6	-1.96
	2	0.0	0.0	3	0.01262	16.14	-1.616
	2	0.0	0.0	3	0.01423	18.96	-1.933
	2	0.0	0.0	3	0.0395	32.4	-3.114
	2	0.0	0.0	3	0.04236	30.5	-3.223
	2	0.0	0.0	3	0.02547	31.94	-2.792
	2	0.0	0.0	3	0.0	15.88	-7.369
	2	0.0	0.0	3	0.0	16.24	0.0
	2	0.0	0.0	3	0.0	30.0	0.0
	2	0.0	0.0	3	0.0	30.0	0.0
	2	0.0	0.0	3	0.0	30.0	0.0
	2	0.0	0.0	3	0.0	30.0	0.0
	2	0.0	0.0	3	0.0	30.0	0.0
	2	0.0	0.0	3	0.0	30.0	0.0
	2	0.0	0.0	3	0.0	30.0	0.0
	2	0.0	0.0	3	0.0	18.25	-59.22
	2	0.0	0.0	3	0.0	30.0	0.0
	2	0.0	0.0	3	0.0	30.0	0.0
	2	0.0	0.0	3	0.0	30.0	0.0
	2	0.0	0.0	3	0.0	30.0	0.0
	2	0.0	0.0	3	0.0	30.0	0.0
	2	0.0	0.0	3	0.0	30.0	0.0
	2	0.0	0.0	3	0.0	30.0	0.0
	2	0.0	0.0	3	0.0	30.0	0.0
	2	0.0	0.0	3	0.0	16.89	0.0
	2	0.0	0.0	3	0.0	17.24	0.0
	2	0.0	0.0	3	0.07238	32.4	-16.6
	2	0.0	0.0	3	0.09706	41.56	-22.21
	2	0.0	0.0	3	0.06372000000000001	60.65	-24.9
	2	0.0	0.0	3	0.04619000000000001	57.64	-18.86
	2	0.0	0.0	3	0.0	30.0	0.0
	2	0.0	0.0	3	0.0	30.0	0.0
	2	0.0	0.0	3	0.0	30.0	0.0
	2	0.0	0.0	3	0.0	30.0	0.0
	2	0.0	0.0	3	0.055110000000000006	35.08	-7.252
	2	0.0	0.0	3	0.03611	40.51	-6.465
	2	0.0	0.0	3	0.0	16.81	-2.082
	2	0.0	0.0	3	0.01743	19.43	-1.954
	2	0.0	0.0	3	0.02033	20.52	-2.296
	2	0.0	0.0	3	0.02259	17.81	-1.818
	2	0.0	0.0	3	0.014	21.09	-2.093
	2	0.0	0.0	3	0.0	30.0	0.0
	2	0.0	0.0	3	0.0	30.0	0.0
	2	0.0	0.0	3	0.0	30.0	0.0
	2	0.0	0.0	3	0.0	30.0	0.0
	2	0.0	0.0	3	0.0	30.0	0.0
	2	0.0	0.0	3	0.0	30.0	0.0
	2	0.0	0.0	3	0.0	30.0	0.0
	2	0.0	0.0	3	0.0	30.0	0.0
	2	0.0	0.0	3	0.0	30.0	0.0
	2	0.0	0.0	3	0.0	30.0	0.0
	2	0.0	0.0	3	0.0	30.0	0.0
	2	0.0	0.0	3	0.0	30.0	0.0
	2	0.0	0.0	3	0.0	30.0	0.0
	2	0.0	0.0	3	0.0	30.0	0.0
	2	0.0	0.0	3	0.01632	15.85	-1.077
	2	0.0	0.0	3	0.01435	17.2	-1.051
	2	0.0	0.0	3	0.01315	16.85	-1.112
	2	0.0	0.0	3	0.01543	18.81	-1.131
	2	0.0	0.0	3	0.0	30.0	0.0
	2	0.0	0.0	3	0.0	30.0	0.0
	2	0.0	0.0	3	0.0	30.0	0.0
	2	0.0	0.0	3	0.0	30.0	0.0
	2	0.0	0.0	3	0.0	30.0	0.0
	2	0.0	0.0	3	0.0	30.0	0.0
	2	0.0	0.0	3	0.0	18.6	-22.78
	2	0.0	0.0	3	0.0	16.85	-20.94
	2	0.0	0.0	3	0.0	17.23	-18.24
	2	0.0	0.0	3	0.0	18.16	-21.24
	2	0.0	0.0	3	0.0	17.98	0.0
	2	0.0	0.0	3	0.0	18.59	-25.38
	2	0.0	0.0	3	0.0	30.0	0.0
	2	0.0	0.0	3	0.0	30.0	0.0
	2	0.0	0.0	3	0.0	17.74	-13.65
	2	0.0	0.0	3	0.0	14.55	0.0
	2	0.0	0.0	3	0.0	30.0	0.0
	2	0.0	0.0	3	0.0	30.0	0.0
	2	0.0	0.0	3	0.0	30.0	0.0
	2	0.0	0.0	3	0.0	30.0	0.0
	2	0.0	0.0	3	0.0	17.44	-39.95
	2	0.0	0.0	3	0.0	17.68	-39.85
	2	0.0	0.0	3	0.0	16.67	-51.69
	2	0.0	0.0	3	0.0	17.29	-40.04
	2	0.0	0.0	3	0.0	15.92	-38.62
	2	0.0	0.0	3	0.01782	18.55	0.0
	2	0.0	0.0	3	0.0	30.0	0.0
	2	0.0	0.0	3	0.07006000000000001	36.3	-9.988
	2	0.0	0.0	3	0.04361	36.45	-8.58
	2	0.0	0.0	3	0.04884000000000001	45.53	-10.24
	2	0.0	0.0	3	0.07723	35.22	-10.19
	2	0.0	0.0	3	0.05828	32.24	-8.31
	2	0.0	0.0	3	0.0	17.32	0.0
	2	0.0	0.0	3	0.0	14.96	0.0
	2	0.0	0.0	3	0.0321	35.55	-5.101
	2	0.0	0.0	3	0.04544000000000001	32.6	-6.358
	2	0.0	0.0	3	0.04928	38.76	-7.503
	2	0.0	0.0	3	0.04114	33.74	-6.166
	2	0.0	0.0	3	0.05504	35.86	-6.78
	2	0.0	0.0	3	0.02348	19.96	-2.36
	2	0.0	0.0	3	0.010090000000000002	18.25	-1.451
	2	0.0	0.0	3	0.01625	16.86	-1.93
	2	0.0	0.0	3	0.01542	20.59	-1.999
	2	0.0	0.0	3	0.011980000000000001	20.42	-1.74
	2	0.0	0.0	3	0.02412	21.75	-2.514
	2	0.0	0.0	3	0.017860000000000004	20.6	-2.333
	2	0.0	0.0	3	0.02627	19.18	-2.102
	2	0.0	0.0	3	0.0	30.0	0.0
	2	0.0	0.0	3	0.0	30.0	0.0
	2	0.0	0.0	3	0.0	30.0	0.0
	2	0.0	0.0	3	0.0	15.73	0.0
	2	0.0	0.0	3	0.0	17.87	0.0
	2	0.0	0.0	3	0.0	16.44	0.0
	2	0.0	0.0	3	0.0	14.92	0.0
	2	0.0	0.0	3	0.03595	38.03	-6.309
	2	0.0	0.0	3	0.0334	42.34	-6.071
	2	0.0	0.0	3	0.03545	36.39	-5.768
	2	0.0	0.0	3	0.05358000000000001	36.26	-7.519
	2	0.0	0.0	3	0.05034	31.34	-6.279
	2	0.0	0.0	3	0.0	30.0	0.0
	2	0.0	0.0	3	0.0	30.0	0.0
	2	0.0	0.0	3	0.0	30.0	0.0
	2	0.0	0.0	3	0.013290000000000001	15.42	-1.455
	2	0.0	0.0	3	0.02109	18.78	-1.762
	2	0.0	0.0	3	0.01965	16.67	-1.379
	2	0.0	0.0	3	0.01365	18.54	-1.494
	2	0.0	0.0	3	0.01531	21.78	-2.414
	2	0.0	0.0	3	0.019080000000000003	17.54	-2.541
	2	0.0	0.0	3	0.02191	19.74	-2.536
	2	0.0	0.0	3	0.0	30.0	0.0
	2	0.0	0.0	3	0.0	30.0	0.0
	2	0.0	0.0	3	0.05819	47.18	-16.98
	2	0.0	0.0	3	0.0804	36.88	-16.91
	2	0.0	0.0	3	0.0	14.25	-1.439
	2	0.0	0.0	3	0.0	14.75	0.0
	2	0.0	0.0	3	0.0	30.0	0.0
	2	0.0	0.0	3	0.0	30.0	0.0
	2	0.0	0.0	3	0.0	30.0	0.0
	2	0.0	0.0	3	0.0	17.32	0.0
	2	0.0	0.0	3	0.0	14.83	0.0
	2	0.0	0.0	3	0.05605	44.51	-12.76
	2	0.0	0.0	3	0.057670000000000006	31.87	-9.818
	2	0.0	0.0	3	0.0579	64.55	-14.66
	2	0.0	0.0	3	0.07515000000000001	45.63	-14.62
	2	0.0	0.0	3	0.07938	34.57	-11.34
	2	0.0	0.0	3	0.0	30.0	0.0
	2	0.0	0.0	3	0.0	30.0	0.0
	2	0.0	0.0	3	0.0	30.0	0.0
...
];

